<?xml version="1.0" encoding="UTF-8"?>

<!-- generated on 2022-12-06 21:50:40 by Eclipse SUMO netedit Version 1.15.0
-->

<routes xmlns:xsi="http://www.w3.org/2001/XMLSchema-instance" xsi:noNamespaceSchemaLocation="http://sumo.dlr.de/xsd/routes_file.xsd">
    <!-- VTypes -->
    <vType id="car" length="3.00" maxSpeed="5.00" vClass="passenger" accel="2.5" decel="1.2" sigma="1.0"/>
    <!-- Routes -->
    <route id="route_0" edges="E0"/>
    <!-- Vehicles, persons and containers (sorted by depart) -->
    <flow id="carflow" type="car" begin="0.00" from="E0" to="E0" end="0.00" number="25"/>
</routes>
