<?xml version="1.0" encoding="UTF-8"?>

<!-- generated on 2022-12-06 21:50:38 by Eclipse SUMO netedit Version 1.15.0
<configuration xmlns:xsi="http://www.w3.org/2001/XMLSchema-instance" xsi:noNamespaceSchemaLocation="http://sumo.dlr.de/xsd/netconvertConfiguration.xsd">

    <input>
        <sumo-net-file value="/home/thorn2319/Desktop/TrafficRl/highway.net.xml"/>
    </input>

    <output>
        <output-file value="/home/thorn2319/Desktop/TrafficRl/highway.net.xml"/>
    </output>

    <processing>
        <geometry.min-radius.fix.railways value="false"/>
        <geometry.max-grade.fix value="false"/>
        <offset.disable-normalization value="true"/>
        <lefthand value="0"/>
    </processing>

    <junctions>
        <no-internal-links value="true"/>
        <no-turnarounds value="true"/>
        <junctions.corner-detail value="5"/>
        <junctions.limit-turn-speed value="5.50"/>
        <rectangular-lane-cut value="0"/>
    </junctions>

    <pedestrian>
        <walkingareas value="0"/>
    </pedestrian>

    <netedit>
        <route-files value="/home/thorn2319/Desktop/TrafficRl/highway.rou.xml"/>
    </netedit>

</configuration>
-->

<net version="1.9" junctionCornerDetail="5" limitTurnSpeed="5.50" xmlns:xsi="http://www.w3.org/2001/XMLSchema-instance" xsi:noNamespaceSchemaLocation="http://sumo.dlr.de/xsd/net_file.xsd">

    <location netOffset="0.00,0.00" convBoundary="29.88,14.87,29.88,189.56" origBoundary="-10000000000.00,-10000000000.00,10000000000.00,10000000000.00" projParameter="!"/>

    <edge id="E0" from="1" to="2" priority="-1" length="300.00">
        <lane id="E0_0" index="0" speed="13.89" length="300.00" shape="37.88,14.87 37.88,189.56"/>
        <lane id="E0_1" index="1" speed="13.89" length="300.00" shape="34.68,14.87 34.68,189.56"/>
        <lane id="E0_2" index="2" speed="13.89" length="300.00" shape="31.48,14.87 31.48,189.56"/>
    </edge>

    <junction id="1" type="dead_end" x="29.88" y="14.87" incLanes="" intLanes="" shape="29.88,14.87 39.48,14.87"/>
    <junction id="2" type="dead_end" x="29.88" y="189.56" incLanes="E0_0 E0_1 E0_2" intLanes="" shape="39.48,189.56 29.88,189.56"/>

</net>
